160
(4,0) Nanotube (1,1,10) replication -- TubeGen 3.3, J T Frey, University of Delaware
C 1.597332 0.000000 -20.032099
C 1.597332 0.000000 -21.453099
C 1.129484 1.129484 -17.886789
C 1.129484 1.129484 -19.307789
C 0.000000 1.597332 -20.032099
C 0.000000 1.597332 -21.453099
C -1.129484 1.129484 -17.886789
C -1.129484 1.129484 -19.307789
C -1.597332 -0.000000 -20.032099
C -1.597332 0.000000 -21.453099
C -1.129484 -1.129484 -17.886789
C -1.129484 -1.129484 -19.307789
C 0.000000 -1.597332 -20.032099
C -0.000000 -1.597332 -21.453099
C 1.129484 -1.129484 -17.886789
C 1.129484 -1.129484 -19.307789
C 1.597332 0.000000 -15.741479
C 1.597332 0.000000 -17.162479
C 1.129484 1.129484 -13.596169
C 1.129484 1.129484 -15.017169
C 0.000000 1.597332 -15.741479
C 0.000000 1.597332 -17.162479
C -1.129484 1.129484 -13.596169
C -1.129484 1.129484 -15.017169
C -1.597332 -0.000000 -15.741479
C -1.597332 0.000000 -17.162479
C -1.129484 -1.129484 -13.596169
C -1.129484 -1.129484 -15.017169
C 0.000000 -1.597332 -15.741479
C -0.000000 -1.597332 -17.162479
C 1.129484 -1.129484 -13.596169
C 1.129484 -1.129484 -15.017169
C 1.597332 0.000000 -11.450859
C 1.597332 0.000000 -12.871859
C 1.129484 1.129484 -9.305550
C 1.129484 1.129484 -10.726550
C 0.000000 1.597332 -11.450859
C 0.000000 1.597332 -12.871859
C -1.129484 1.129484 -9.305550
C -1.129484 1.129484 -10.726550
C -1.597332 -0.000000 -11.450859
C -1.597332 0.000000 -12.871859
C -1.129484 -1.129484 -9.305550
C -1.129484 -1.129484 -10.726550
C 0.000000 -1.597332 -11.450859
C -0.000000 -1.597332 -12.871859
C 1.129484 -1.129484 -9.305550
C 1.129484 -1.129484 -10.726550
C 1.597332 0.000000 -7.160240
C 1.597332 0.000000 -8.581240
C 1.129484 1.129484 -5.014930
C 1.129484 1.129484 -6.435930
C 0.000000 1.597332 -7.160240
C 0.000000 1.597332 -8.581240
C -1.129484 1.129484 -5.014930
C -1.129484 1.129484 -6.435930
C -1.597332 -0.000000 -7.160240
C -1.597332 0.000000 -8.581240
C -1.129484 -1.129484 -5.014930
C -1.129484 -1.129484 -6.435930
C 0.000000 -1.597332 -7.160240
C -0.000000 -1.597332 -8.581240
C 1.129484 -1.129484 -5.014930
C 1.129484 -1.129484 -6.435930
C 1.597332 0.000000 -2.869620
C 1.597332 0.000000 -4.290620
C 1.129484 1.129484 -0.724310
C 1.129484 1.129484 -2.145310
C 0.000000 1.597332 -2.869620
C 0.000000 1.597332 -4.290620
C -1.129484 1.129484 -0.724310
C -1.129484 1.129484 -2.145310
C -1.597332 -0.000000 -2.869620
C -1.597332 0.000000 -4.290620
C -1.129484 -1.129484 -0.724310
C -1.129484 -1.129484 -2.145310
C 0.000000 -1.597332 -2.869620
C -0.000000 -1.597332 -4.290620
C 1.129484 -1.129484 -0.724310
C 1.129484 -1.129484 -2.145310
C 1.597332 0.000000 1.421000
C 1.597332 0.000000 0.000000
C 1.129484 1.129484 3.566310
C 1.129484 1.129484 2.145310
C 0.000000 1.597332 1.421000
C 0.000000 1.597332 0.000000
C -1.129484 1.129484 3.566310
C -1.129484 1.129484 2.145310
C -1.597332 -0.000000 1.421000
C -1.597332 0.000000 0.000000
C -1.129484 -1.129484 3.566310
C -1.129484 -1.129484 2.145310
C 0.000000 -1.597332 1.421000
C -0.000000 -1.597332 0.000000
C 1.129484 -1.129484 3.566310
C 1.129484 -1.129484 2.145310
C 1.597332 0.000000 5.711620
C 1.597332 0.000000 4.290620
C 1.129484 1.129484 7.856930
C 1.129484 1.129484 6.435930
C 0.000000 1.597332 5.711620
C 0.000000 1.597332 4.290620
C -1.129484 1.129484 7.856930
C -1.129484 1.129484 6.435930
C -1.597332 -0.000000 5.711620
C -1.597332 0.000000 4.290620
C -1.129484 -1.129484 7.856930
C -1.129484 -1.129484 6.435930
C 0.000000 -1.597332 5.711620
C -0.000000 -1.597332 4.290620
C 1.129484 -1.129484 7.856930
C 1.129484 -1.129484 6.435930
C 1.597332 0.000000 10.002240
C 1.597332 0.000000 8.581240
C 1.129484 1.129484 12.147550
C 1.129484 1.129484 10.726550
C 0.000000 1.597332 10.002240
C 0.000000 1.597332 8.581240
C -1.129484 1.129484 12.147550
C -1.129484 1.129484 10.726550
C -1.597332 -0.000000 10.002240
C -1.597332 0.000000 8.581240
C -1.129484 -1.129484 12.147550
C -1.129484 -1.129484 10.726550
C 0.000000 -1.597332 10.002240
C -0.000000 -1.597332 8.581240
C 1.129484 -1.129484 12.147550
C 1.129484 -1.129484 10.726550
C 1.597332 0.000000 14.292859
C 1.597332 0.000000 12.871859
C 1.129484 1.129484 16.438169
C 1.129484 1.129484 15.017169
C 0.000000 1.597332 14.292859
C 0.000000 1.597332 12.871859
C -1.129484 1.129484 16.438169
C -1.129484 1.129484 15.017169
C -1.597332 -0.000000 14.292859
C -1.597332 0.000000 12.871859
C -1.129484 -1.129484 16.438169
C -1.129484 -1.129484 15.017169
C 0.000000 -1.597332 14.292859
C -0.000000 -1.597332 12.871859
C 1.129484 -1.129484 16.438169
C 1.129484 -1.129484 15.017169
C 1.597332 0.000000 18.583479
C 1.597332 0.000000 17.162479
C 1.129484 1.129484 20.728789
C 1.129484 1.129484 19.307789
C 0.000000 1.597332 18.583479
C 0.000000 1.597332 17.162479
C -1.129484 1.129484 20.728789
C -1.129484 1.129484 19.307789
C -1.597332 -0.000000 18.583479
C -1.597332 0.000000 17.162479
C -1.129484 -1.129484 20.728789
C -1.129484 -1.129484 19.307789
C 0.000000 -1.597332 18.583479
C -0.000000 -1.597332 17.162479
C 1.129484 -1.129484 20.728789
C 1.129484 -1.129484 19.307789


