680
(17,0) Nanotube (1,1,10) replication -- TubeGen 3.3, J T Frey, University of Delaware
C 6.666336 0.000000 -19.901586
C 6.666336 0.000000 -21.322586
C 6.552829 1.224936 -17.769327
C 6.552829 1.224936 -19.190327
C 6.216173 2.408158 -19.901586
C 6.216173 2.408158 -21.322586
C 5.667833 3.509374 -17.769327
C 5.667833 3.509374 -19.190327
C 4.926482 4.491082 -19.901586
C 4.926482 4.491082 -21.322586
C 4.017365 5.319851 -17.769327
C 4.017365 5.319851 -19.190327
C 2.971442 5.967459 -19.901586
C 2.971442 5.967459 -21.322586
C 1.824329 6.411853 -17.769327
C 1.824329 6.411853 -19.190327
C 0.615092 6.637899 -19.901586
C 0.615092 6.637899 -21.322586
C -0.615092 6.637899 -17.769327
C -0.615092 6.637899 -19.190327
C -1.824329 6.411853 -19.901586
C -1.824329 6.411853 -21.322586
C -2.971442 5.967459 -17.769327
C -2.971442 5.967459 -19.190327
C -4.017365 5.319851 -19.901586
C -4.017365 5.319851 -21.322586
C -4.926482 4.491082 -17.769327
C -4.926482 4.491082 -19.190327
C -5.667833 3.509374 -19.901586
C -5.667833 3.509374 -21.322586
C -6.216173 2.408158 -17.769327
C -6.216173 2.408158 -19.190327
C -6.552829 1.224936 -19.901586
C -6.552829 1.224936 -21.322586
C -6.666336 0.000000 -17.769327
C -6.666336 -0.000000 -19.190327
C -6.552829 -1.224936 -19.901586
C -6.552829 -1.224936 -21.322586
C -6.216173 -2.408158 -17.769327
C -6.216173 -2.408158 -19.190327
C -5.667833 -3.509374 -19.901586
C -5.667833 -3.509374 -21.322586
C -4.926482 -4.491082 -17.769327
C -4.926482 -4.491082 -19.190327
C -4.017365 -5.319851 -19.901586
C -4.017365 -5.319851 -21.322586
C -2.971442 -5.967459 -17.769327
C -2.971442 -5.967459 -19.190327
C -1.824329 -6.411853 -19.901586
C -1.824329 -6.411853 -21.322586
C -0.615092 -6.637899 -17.769327
C -0.615092 -6.637899 -19.190327
C 0.615092 -6.637899 -19.901586
C 0.615092 -6.637899 -21.322586
C 1.824329 -6.411853 -17.769327
C 1.824329 -6.411853 -19.190327
C 2.971442 -5.967459 -19.901586
C 2.971442 -5.967459 -21.322586
C 4.017365 -5.319851 -17.769327
C 4.017365 -5.319851 -19.190327
C 4.926482 -4.491082 -19.901586
C 4.926482 -4.491082 -21.322586
C 5.667833 -3.509374 -17.769327
C 5.667833 -3.509374 -19.190327
C 6.216173 -2.408158 -19.901586
C 6.216173 -2.408158 -21.322586
C 6.552829 -1.224936 -17.769327
C 6.552829 -1.224936 -19.190327
C 6.666336 0.000000 -15.637069
C 6.666336 0.000000 -17.058069
C 6.552829 1.224936 -13.504810
C 6.552829 1.224936 -14.925810
C 6.216173 2.408158 -15.637069
C 6.216173 2.408158 -17.058069
C 5.667833 3.509374 -13.504810
C 5.667833 3.509374 -14.925810
C 4.926482 4.491082 -15.637069
C 4.926482 4.491082 -17.058069
C 4.017365 5.319851 -13.504810
C 4.017365 5.319851 -14.925810
C 2.971442 5.967459 -15.637069
C 2.971442 5.967459 -17.058069
C 1.824329 6.411853 -13.504810
C 1.824329 6.411853 -14.925810
C 0.615092 6.637899 -15.637069
C 0.615092 6.637899 -17.058069
C -0.615092 6.637899 -13.504810
C -0.615092 6.637899 -14.925810
C -1.824329 6.411853 -15.637069
C -1.824329 6.411853 -17.058069
C -2.971442 5.967459 -13.504810
C -2.971442 5.967459 -14.925810
C -4.017365 5.319851 -15.637069
C -4.017365 5.319851 -17.058069
C -4.926482 4.491082 -13.504810
C -4.926482 4.491082 -14.925810
C -5.667833 3.509374 -15.637069
C -5.667833 3.509374 -17.058069
C -6.216173 2.408158 -13.504810
C -6.216173 2.408158 -14.925810
C -6.552829 1.224936 -15.637069
C -6.552829 1.224936 -17.058069
C -6.666336 0.000000 -13.504810
C -6.666336 -0.000000 -14.925810
C -6.552829 -1.224936 -15.637069
C -6.552829 -1.224936 -17.058069
C -6.216173 -2.408158 -13.504810
C -6.216173 -2.408158 -14.925810
C -5.667833 -3.509374 -15.637069
C -5.667833 -3.509374 -17.058069
C -4.926482 -4.491082 -13.504810
C -4.926482 -4.491082 -14.925810
C -4.017365 -5.319851 -15.637069
C -4.017365 -5.319851 -17.058069
C -2.971442 -5.967459 -13.504810
C -2.971442 -5.967459 -14.925810
C -1.824329 -6.411853 -15.637069
C -1.824329 -6.411853 -17.058069
C -0.615092 -6.637899 -13.504810
C -0.615092 -6.637899 -14.925810
C 0.615092 -6.637899 -15.637069
C 0.615092 -6.637899 -17.058069
C 1.824329 -6.411853 -13.504810
C 1.824329 -6.411853 -14.925810
C 2.971442 -5.967459 -15.637069
C 2.971442 -5.967459 -17.058069
C 4.017365 -5.319851 -13.504810
C 4.017365 -5.319851 -14.925810
C 4.926482 -4.491082 -15.637069
C 4.926482 -4.491082 -17.058069
C 5.667833 -3.509374 -13.504810
C 5.667833 -3.509374 -14.925810
C 6.216173 -2.408158 -15.637069
C 6.216173 -2.408158 -17.058069
C 6.552829 -1.224936 -13.504810
C 6.552829 -1.224936 -14.925810
C 6.666336 0.000000 -11.372552
C 6.666336 0.000000 -12.793552
C 6.552829 1.224936 -9.240293
C 6.552829 1.224936 -10.661293
C 6.216173 2.408158 -11.372552
C 6.216173 2.408158 -12.793552
C 5.667833 3.509374 -9.240293
C 5.667833 3.509374 -10.661293
C 4.926482 4.491082 -11.372552
C 4.926482 4.491082 -12.793552
C 4.017365 5.319851 -9.240293
C 4.017365 5.319851 -10.661293
C 2.971442 5.967459 -11.372552
C 2.971442 5.967459 -12.793552
C 1.824329 6.411853 -9.240293
C 1.824329 6.411853 -10.661293
C 0.615092 6.637899 -11.372552
C 0.615092 6.637899 -12.793552
C -0.615092 6.637899 -9.240293
C -0.615092 6.637899 -10.661293
C -1.824329 6.411853 -11.372552
C -1.824329 6.411853 -12.793552
C -2.971442 5.967459 -9.240293
C -2.971442 5.967459 -10.661293
C -4.017365 5.319851 -11.372552
C -4.017365 5.319851 -12.793552
C -4.926482 4.491082 -9.240293
C -4.926482 4.491082 -10.661293
C -5.667833 3.509374 -11.372552
C -5.667833 3.509374 -12.793552
C -6.216173 2.408158 -9.240293
C -6.216173 2.408158 -10.661293
C -6.552829 1.224936 -11.372552
C -6.552829 1.224936 -12.793552
C -6.666336 0.000000 -9.240293
C -6.666336 -0.000000 -10.661293
C -6.552829 -1.224936 -11.372552
C -6.552829 -1.224936 -12.793552
C -6.216173 -2.408158 -9.240293
C -6.216173 -2.408158 -10.661293
C -5.667833 -3.509374 -11.372552
C -5.667833 -3.509374 -12.793552
C -4.926482 -4.491082 -9.240293
C -4.926482 -4.491082 -10.661293
C -4.017365 -5.319851 -11.372552
C -4.017365 -5.319851 -12.793552
C -2.971442 -5.967459 -9.240293
C -2.971442 -5.967459 -10.661293
C -1.824329 -6.411853 -11.372552
C -1.824329 -6.411853 -12.793552
C -0.615092 -6.637899 -9.240293
C -0.615092 -6.637899 -10.661293
C 0.615092 -6.637899 -11.372552
C 0.615092 -6.637899 -12.793552
C 1.824329 -6.411853 -9.240293
C 1.824329 -6.411853 -10.661293
C 2.971442 -5.967459 -11.372552
C 2.971442 -5.967459 -12.793552
C 4.017365 -5.319851 -9.240293
C 4.017365 -5.319851 -10.661293
C 4.926482 -4.491082 -11.372552
C 4.926482 -4.491082 -12.793552
C 5.667833 -3.509374 -9.240293
C 5.667833 -3.509374 -10.661293
C 6.216173 -2.408158 -11.372552
C 6.216173 -2.408158 -12.793552
C 6.552829 -1.224936 -9.240293
C 6.552829 -1.224936 -10.661293
C 6.666336 0.000000 -7.108034
C 6.666336 0.000000 -8.529034
C 6.552829 1.224936 -4.975776
C 6.552829 1.224936 -6.396776
C 6.216173 2.408158 -7.108034
C 6.216173 2.408158 -8.529034
C 5.667833 3.509374 -4.975776
C 5.667833 3.509374 -6.396776
C 4.926482 4.491082 -7.108034
C 4.926482 4.491082 -8.529034
C 4.017365 5.319851 -4.975776
C 4.017365 5.319851 -6.396776
C 2.971442 5.967459 -7.108034
C 2.971442 5.967459 -8.529034
C 1.824329 6.411853 -4.975776
C 1.824329 6.411853 -6.396776
C 0.615092 6.637899 -7.108034
C 0.615092 6.637899 -8.529034
C -0.615092 6.637899 -4.975776
C -0.615092 6.637899 -6.396776
C -1.824329 6.411853 -7.108034
C -1.824329 6.411853 -8.529034
C -2.971442 5.967459 -4.975776
C -2.971442 5.967459 -6.396776
C -4.017365 5.319851 -7.108034
C -4.017365 5.319851 -8.529034
C -4.926482 4.491082 -4.975776
C -4.926482 4.491082 -6.396776
C -5.667833 3.509374 -7.108034
C -5.667833 3.509374 -8.529034
C -6.216173 2.408158 -4.975776
C -6.216173 2.408158 -6.396776
C -6.552829 1.224936 -7.108034
C -6.552829 1.224936 -8.529034
C -6.666336 0.000000 -4.975776
C -6.666336 -0.000000 -6.396776
C -6.552829 -1.224936 -7.108034
C -6.552829 -1.224936 -8.529034
C -6.216173 -2.408158 -4.975776
C -6.216173 -2.408158 -6.396776
C -5.667833 -3.509374 -7.108034
C -5.667833 -3.509374 -8.529034
C -4.926482 -4.491082 -4.975776
C -4.926482 -4.491082 -6.396776
C -4.017365 -5.319851 -7.108034
C -4.017365 -5.319851 -8.529034
C -2.971442 -5.967459 -4.975776
C -2.971442 -5.967459 -6.396776
C -1.824329 -6.411853 -7.108034
C -1.824329 -6.411853 -8.529034
C -0.615092 -6.637899 -4.975776
C -0.615092 -6.637899 -6.396776
C 0.615092 -6.637899 -7.108034
C 0.615092 -6.637899 -8.529034
C 1.824329 -6.411853 -4.975776
C 1.824329 -6.411853 -6.396776
C 2.971442 -5.967459 -7.108034
C 2.971442 -5.967459 -8.529034
C 4.017365 -5.319851 -4.975776
C 4.017365 -5.319851 -6.396776
C 4.926482 -4.491082 -7.108034
C 4.926482 -4.491082 -8.529034
C 5.667833 -3.509374 -4.975776
C 5.667833 -3.509374 -6.396776
C 6.216173 -2.408158 -7.108034
C 6.216173 -2.408158 -8.529034
C 6.552829 -1.224936 -4.975776
C 6.552829 -1.224936 -6.396776
C 6.666336 0.000000 -2.843517
C 6.666336 0.000000 -4.264517
C 6.552829 1.224936 -0.711259
C 6.552829 1.224936 -2.132259
C 6.216173 2.408158 -2.843517
C 6.216173 2.408158 -4.264517
C 5.667833 3.509374 -0.711259
C 5.667833 3.509374 -2.132259
C 4.926482 4.491082 -2.843517
C 4.926482 4.491082 -4.264517
C 4.017365 5.319851 -0.711259
C 4.017365 5.319851 -2.132259
C 2.971442 5.967459 -2.843517
C 2.971442 5.967459 -4.264517
C 1.824329 6.411853 -0.711259
C 1.824329 6.411853 -2.132259
C 0.615092 6.637899 -2.843517
C 0.615092 6.637899 -4.264517
C -0.615092 6.637899 -0.711259
C -0.615092 6.637899 -2.132259
C -1.824329 6.411853 -2.843517
C -1.824329 6.411853 -4.264517
C -2.971442 5.967459 -0.711259
C -2.971442 5.967459 -2.132259
C -4.017365 5.319851 -2.843517
C -4.017365 5.319851 -4.264517
C -4.926482 4.491082 -0.711259
C -4.926482 4.491082 -2.132259
C -5.667833 3.509374 -2.843517
C -5.667833 3.509374 -4.264517
C -6.216173 2.408158 -0.711259
C -6.216173 2.408158 -2.132259
C -6.552829 1.224936 -2.843517
C -6.552829 1.224936 -4.264517
C -6.666336 0.000000 -0.711259
C -6.666336 -0.000000 -2.132259
C -6.552829 -1.224936 -2.843517
C -6.552829 -1.224936 -4.264517
C -6.216173 -2.408158 -0.711259
C -6.216173 -2.408158 -2.132259
C -5.667833 -3.509374 -2.843517
C -5.667833 -3.509374 -4.264517
C -4.926482 -4.491082 -0.711259
C -4.926482 -4.491082 -2.132259
C -4.017365 -5.319851 -2.843517
C -4.017365 -5.319851 -4.264517
C -2.971442 -5.967459 -0.711259
C -2.971442 -5.967459 -2.132259
C -1.824329 -6.411853 -2.843517
C -1.824329 -6.411853 -4.264517
C -0.615092 -6.637899 -0.711259
C -0.615092 -6.637899 -2.132259
C 0.615092 -6.637899 -2.843517
C 0.615092 -6.637899 -4.264517
C 1.824329 -6.411853 -0.711259
C 1.824329 -6.411853 -2.132259
C 2.971442 -5.967459 -2.843517
C 2.971442 -5.967459 -4.264517
C 4.017365 -5.319851 -0.711259
C 4.017365 -5.319851 -2.132259
C 4.926482 -4.491082 -2.843517
C 4.926482 -4.491082 -4.264517
C 5.667833 -3.509374 -0.711259
C 5.667833 -3.509374 -2.132259
C 6.216173 -2.408158 -2.843517
C 6.216173 -2.408158 -4.264517
C 6.552829 -1.224936 -0.711259
C 6.552829 -1.224936 -2.132259
C 6.666336 0.000000 1.421000
C 6.666336 0.000000 0.000000
C 6.552829 1.224936 3.553259
C 6.552829 1.224936 2.132259
C 6.216173 2.408158 1.421000
C 6.216173 2.408158 0.000000
C 5.667833 3.509374 3.553259
C 5.667833 3.509374 2.132259
C 4.926482 4.491082 1.421000
C 4.926482 4.491082 0.000000
C 4.017365 5.319851 3.553259
C 4.017365 5.319851 2.132259
C 2.971442 5.967459 1.421000
C 2.971442 5.967459 0.000000
C 1.824329 6.411853 3.553259
C 1.824329 6.411853 2.132259
C 0.615092 6.637899 1.421000
C 0.615092 6.637899 0.000000
C -0.615092 6.637899 3.553259
C -0.615092 6.637899 2.132259
C -1.824329 6.411853 1.421000
C -1.824329 6.411853 0.000000
C -2.971442 5.967459 3.553259
C -2.971442 5.967459 2.132259
C -4.017365 5.319851 1.421000
C -4.017365 5.319851 0.000000
C -4.926482 4.491082 3.553259
C -4.926482 4.491082 2.132259
C -5.667833 3.509374 1.421000
C -5.667833 3.509374 0.000000
C -6.216173 2.408158 3.553259
C -6.216173 2.408158 2.132259
C -6.552829 1.224936 1.421000
C -6.552829 1.224936 0.000000
C -6.666336 0.000000 3.553259
C -6.666336 -0.000000 2.132259
C -6.552829 -1.224936 1.421000
C -6.552829 -1.224936 0.000000
C -6.216173 -2.408158 3.553259
C -6.216173 -2.408158 2.132259
C -5.667833 -3.509374 1.421000
C -5.667833 -3.509374 0.000000
C -4.926482 -4.491082 3.553259
C -4.926482 -4.491082 2.132259
C -4.017365 -5.319851 1.421000
C -4.017365 -5.319851 0.000000
C -2.971442 -5.967459 3.553259
C -2.971442 -5.967459 2.132259
C -1.824329 -6.411853 1.421000
C -1.824329 -6.411853 0.000000
C -0.615092 -6.637899 3.553259
C -0.615092 -6.637899 2.132259
C 0.615092 -6.637899 1.421000
C 0.615092 -6.637899 0.000000
C 1.824329 -6.411853 3.553259
C 1.824329 -6.411853 2.132259
C 2.971442 -5.967459 1.421000
C 2.971442 -5.967459 0.000000
C 4.017365 -5.319851 3.553259
C 4.017365 -5.319851 2.132259
C 4.926482 -4.491082 1.421000
C 4.926482 -4.491082 0.000000
C 5.667833 -3.509374 3.553259
C 5.667833 -3.509374 2.132259
C 6.216173 -2.408158 1.421000
C 6.216173 -2.408158 0.000000
C 6.552829 -1.224936 3.553259
C 6.552829 -1.224936 2.132259
C 6.666336 0.000000 5.685517
C 6.666336 0.000000 4.264517
C 6.552829 1.224936 7.817776
C 6.552829 1.224936 6.396776
C 6.216173 2.408158 5.685517
C 6.216173 2.408158 4.264517
C 5.667833 3.509374 7.817776
C 5.667833 3.509374 6.396776
C 4.926482 4.491082 5.685517
C 4.926482 4.491082 4.264517
C 4.017365 5.319851 7.817776
C 4.017365 5.319851 6.396776
C 2.971442 5.967459 5.685517
C 2.971442 5.967459 4.264517
C 1.824329 6.411853 7.817776
C 1.824329 6.411853 6.396776
C 0.615092 6.637899 5.685517
C 0.615092 6.637899 4.264517
C -0.615092 6.637899 7.817776
C -0.615092 6.637899 6.396776
C -1.824329 6.411853 5.685517
C -1.824329 6.411853 4.264517
C -2.971442 5.967459 7.817776
C -2.971442 5.967459 6.396776
C -4.017365 5.319851 5.685517
C -4.017365 5.319851 4.264517
C -4.926482 4.491082 7.817776
C -4.926482 4.491082 6.396776
C -5.667833 3.509374 5.685517
C -5.667833 3.509374 4.264517
C -6.216173 2.408158 7.817776
C -6.216173 2.408158 6.396776
C -6.552829 1.224936 5.685517
C -6.552829 1.224936 4.264517
C -6.666336 0.000000 7.817776
C -6.666336 -0.000000 6.396776
C -6.552829 -1.224936 5.685517
C -6.552829 -1.224936 4.264517
C -6.216173 -2.408158 7.817776
C -6.216173 -2.408158 6.396776
C -5.667833 -3.509374 5.685517
C -5.667833 -3.509374 4.264517
C -4.926482 -4.491082 7.817776
C -4.926482 -4.491082 6.396776
C -4.017365 -5.319851 5.685517
C -4.017365 -5.319851 4.264517
C -2.971442 -5.967459 7.817776
C -2.971442 -5.967459 6.396776
C -1.824329 -6.411853 5.685517
C -1.824329 -6.411853 4.264517
C -0.615092 -6.637899 7.817776
C -0.615092 -6.637899 6.396776
C 0.615092 -6.637899 5.685517
C 0.615092 -6.637899 4.264517
C 1.824329 -6.411853 7.817776
C 1.824329 -6.411853 6.396776
C 2.971442 -5.967459 5.685517
C 2.971442 -5.967459 4.264517
C 4.017365 -5.319851 7.817776
C 4.017365 -5.319851 6.396776
C 4.926482 -4.491082 5.685517
C 4.926482 -4.491082 4.264517
C 5.667833 -3.509374 7.817776
C 5.667833 -3.509374 6.396776
C 6.216173 -2.408158 5.685517
C 6.216173 -2.408158 4.264517
C 6.552829 -1.224936 7.817776
C 6.552829 -1.224936 6.396776
C 6.666336 0.000000 9.950034
C 6.666336 0.000000 8.529034
C 6.552829 1.224936 12.082293
C 6.552829 1.224936 10.661293
C 6.216173 2.408158 9.950034
C 6.216173 2.408158 8.529034
C 5.667833 3.509374 12.082293
C 5.667833 3.509374 10.661293
C 4.926482 4.491082 9.950034
C 4.926482 4.491082 8.529034
C 4.017365 5.319851 12.082293
C 4.017365 5.319851 10.661293
C 2.971442 5.967459 9.950034
C 2.971442 5.967459 8.529034
C 1.824329 6.411853 12.082293
C 1.824329 6.411853 10.661293
C 0.615092 6.637899 9.950034
C 0.615092 6.637899 8.529034
C -0.615092 6.637899 12.082293
C -0.615092 6.637899 10.661293
C -1.824329 6.411853 9.950034
C -1.824329 6.411853 8.529034
C -2.971442 5.967459 12.082293
C -2.971442 5.967459 10.661293
C -4.017365 5.319851 9.950034
C -4.017365 5.319851 8.529034
C -4.926482 4.491082 12.082293
C -4.926482 4.491082 10.661293
C -5.667833 3.509374 9.950034
C -5.667833 3.509374 8.529034
C -6.216173 2.408158 12.082293
C -6.216173 2.408158 10.661293
C -6.552829 1.224936 9.950034
C -6.552829 1.224936 8.529034
C -6.666336 0.000000 12.082293
C -6.666336 -0.000000 10.661293
C -6.552829 -1.224936 9.950034
C -6.552829 -1.224936 8.529034
C -6.216173 -2.408158 12.082293
C -6.216173 -2.408158 10.661293
C -5.667833 -3.509374 9.950034
C -5.667833 -3.509374 8.529034
C -4.926482 -4.491082 12.082293
C -4.926482 -4.491082 10.661293
C -4.017365 -5.319851 9.950034
C -4.017365 -5.319851 8.529034
C -2.971442 -5.967459 12.082293
C -2.971442 -5.967459 10.661293
C -1.824329 -6.411853 9.950034
C -1.824329 -6.411853 8.529034
C -0.615092 -6.637899 12.082293
C -0.615092 -6.637899 10.661293
C 0.615092 -6.637899 9.950034
C 0.615092 -6.637899 8.529034
C 1.824329 -6.411853 12.082293
C 1.824329 -6.411853 10.661293
C 2.971442 -5.967459 9.950034
C 2.971442 -5.967459 8.529034
C 4.017365 -5.319851 12.082293
C 4.017365 -5.319851 10.661293
C 4.926482 -4.491082 9.950034
C 4.926482 -4.491082 8.529034
C 5.667833 -3.509374 12.082293
C 5.667833 -3.509374 10.661293
C 6.216173 -2.408158 9.950034
C 6.216173 -2.408158 8.529034
C 6.552829 -1.224936 12.082293
C 6.552829 -1.224936 10.661293
C 6.666336 0.000000 14.214552
C 6.666336 0.000000 12.793552
C 6.552829 1.224936 16.346810
C 6.552829 1.224936 14.925810
C 6.216173 2.408158 14.214552
C 6.216173 2.408158 12.793552
C 5.667833 3.509374 16.346810
C 5.667833 3.509374 14.925810
C 4.926482 4.491082 14.214552
C 4.926482 4.491082 12.793552
C 4.017365 5.319851 16.346810
C 4.017365 5.319851 14.925810
C 2.971442 5.967459 14.214552
C 2.971442 5.967459 12.793552
C 1.824329 6.411853 16.346810
C 1.824329 6.411853 14.925810
C 0.615092 6.637899 14.214552
C 0.615092 6.637899 12.793552
C -0.615092 6.637899 16.346810
C -0.615092 6.637899 14.925810
C -1.824329 6.411853 14.214552
C -1.824329 6.411853 12.793552
C -2.971442 5.967459 16.346810
C -2.971442 5.967459 14.925810
C -4.017365 5.319851 14.214552
C -4.017365 5.319851 12.793552
C -4.926482 4.491082 16.346810
C -4.926482 4.491082 14.925810
C -5.667833 3.509374 14.214552
C -5.667833 3.509374 12.793552
C -6.216173 2.408158 16.346810
C -6.216173 2.408158 14.925810
C -6.552829 1.224936 14.214552
C -6.552829 1.224936 12.793552
C -6.666336 0.000000 16.346810
C -6.666336 -0.000000 14.925810
C -6.552829 -1.224936 14.214552
C -6.552829 -1.224936 12.793552
C -6.216173 -2.408158 16.346810
C -6.216173 -2.408158 14.925810
C -5.667833 -3.509374 14.214552
C -5.667833 -3.509374 12.793552
C -4.926482 -4.491082 16.346810
C -4.926482 -4.491082 14.925810
C -4.017365 -5.319851 14.214552
C -4.017365 -5.319851 12.793552
C -2.971442 -5.967459 16.346810
C -2.971442 -5.967459 14.925810
C -1.824329 -6.411853 14.214552
C -1.824329 -6.411853 12.793552
C -0.615092 -6.637899 16.346810
C -0.615092 -6.637899 14.925810
C 0.615092 -6.637899 14.214552
C 0.615092 -6.637899 12.793552
C 1.824329 -6.411853 16.346810
C 1.824329 -6.411853 14.925810
C 2.971442 -5.967459 14.214552
C 2.971442 -5.967459 12.793552
C 4.017365 -5.319851 16.346810
C 4.017365 -5.319851 14.925810
C 4.926482 -4.491082 14.214552
C 4.926482 -4.491082 12.793552
C 5.667833 -3.509374 16.346810
C 5.667833 -3.509374 14.925810
C 6.216173 -2.408158 14.214552
C 6.216173 -2.408158 12.793552
C 6.552829 -1.224936 16.346810
C 6.552829 -1.224936 14.925810
C 6.666336 0.000000 18.479069
C 6.666336 0.000000 17.058069
C 6.552829 1.224936 20.611327
C 6.552829 1.224936 19.190327
C 6.216173 2.408158 18.479069
C 6.216173 2.408158 17.058069
C 5.667833 3.509374 20.611327
C 5.667833 3.509374 19.190327
C 4.926482 4.491082 18.479069
C 4.926482 4.491082 17.058069
C 4.017365 5.319851 20.611327
C 4.017365 5.319851 19.190327
C 2.971442 5.967459 18.479069
C 2.971442 5.967459 17.058069
C 1.824329 6.411853 20.611327
C 1.824329 6.411853 19.190327
C 0.615092 6.637899 18.479069
C 0.615092 6.637899 17.058069
C -0.615092 6.637899 20.611327
C -0.615092 6.637899 19.190327
C -1.824329 6.411853 18.479069
C -1.824329 6.411853 17.058069
C -2.971442 5.967459 20.611327
C -2.971442 5.967459 19.190327
C -4.017365 5.319851 18.479069
C -4.017365 5.319851 17.058069
C -4.926482 4.491082 20.611327
C -4.926482 4.491082 19.190327
C -5.667833 3.509374 18.479069
C -5.667833 3.509374 17.058069
C -6.216173 2.408158 20.611327
C -6.216173 2.408158 19.190327
C -6.552829 1.224936 18.479069
C -6.552829 1.224936 17.058069
C -6.666336 0.000000 20.611327
C -6.666336 -0.000000 19.190327
C -6.552829 -1.224936 18.479069
C -6.552829 -1.224936 17.058069
C -6.216173 -2.408158 20.611327
C -6.216173 -2.408158 19.190327
C -5.667833 -3.509374 18.479069
C -5.667833 -3.509374 17.058069
C -4.926482 -4.491082 20.611327
C -4.926482 -4.491082 19.190327
C -4.017365 -5.319851 18.479069
C -4.017365 -5.319851 17.058069
C -2.971442 -5.967459 20.611327
C -2.971442 -5.967459 19.190327
C -1.824329 -6.411853 18.479069
C -1.824329 -6.411853 17.058069
C -0.615092 -6.637899 20.611327
C -0.615092 -6.637899 19.190327
C 0.615092 -6.637899 18.479069
C 0.615092 -6.637899 17.058069
C 1.824329 -6.411853 20.611327
C 1.824329 -6.411853 19.190327
C 2.971442 -5.967459 18.479069
C 2.971442 -5.967459 17.058069
C 4.017365 -5.319851 20.611327
C 4.017365 -5.319851 19.190327
C 4.926482 -4.491082 18.479069
C 4.926482 -4.491082 17.058069
C 5.667833 -3.509374 20.611327
C 5.667833 -3.509374 19.190327
C 6.216173 -2.408158 18.479069
C 6.216173 -2.408158 17.058069
C 6.552829 -1.224936 20.611327
C 6.552829 -1.224936 19.190327


