24
(3,3) Nanotube (1,1,2) replication -- TubeGen 3.3, J T Frey, University of Delaware
C 2.064591 0.000000 -2.464282
C 1.575573 1.334205 -2.464282
C 1.032295 1.787988 -1.232141
C -0.367669 2.031589 -1.232141
C -1.032295 1.787988 -2.464282
C -1.943242 0.697384 -2.464282
C -2.064591 0.000000 -1.232141
C -1.575573 -1.334205 -1.232141
C -1.032295 -1.787988 -2.464282
C 0.367669 -2.031589 -2.464282
C 1.032295 -1.787988 -1.232141
C 1.943242 -0.697384 -1.232141
C 2.064591 0.000000 0.000000
C 1.575573 1.334205 0.000000
C 1.032295 1.787988 1.232141
C -0.367669 2.031589 1.232141
C -1.032295 1.787988 0.000000
C -1.943242 0.697384 0.000000
C -2.064591 0.000000 1.232141
C -1.575573 -1.334205 1.232141
C -1.032295 -1.787988 0.000000
C 0.367669 -2.031589 0.000000
C 1.032295 -1.787988 1.232141
C 1.943242 -0.697384 1.232141


